REMARK  4 active torsions:
REMARK  status: ('A' for Active; 'I' for Inactive)
REMARK    1  A    between atoms: C10_10  and  N24_24 
REMARK       I    between atoms: C11_11  and  N24_24 
REMARK    2  A    between atoms: C11_11  and  C12_12 
REMARK    3  A    between atoms: N14_14  and  C18_18 
REMARK    4  A    between atoms: C18_18  and  C19_19 
ROOT
ATOM      1  C1  AAA X   1       8.639  -8.540   1.460  1.00  0.00     0.009 C 
ATOM      2  C2  AAA X   1       8.349  -7.777   0.159  1.00  0.00    -0.013 C 
ATOM      3  C3  AAA X   1      10.139  -8.858   1.549  1.00  0.00    -0.013 C 
ATOM      4  C4  AAA X   1       9.154  -6.468   0.145  1.00  0.00     0.011 C 
ATOM      5  C5  AAA X   1      10.940  -7.546   1.528  1.00  0.00     0.011 C 
ATOM      6  C6  AAA X   1      10.659  -6.782   0.222  1.00  0.00     0.009 C 
ATOM      7  C7  AAA X   1      10.549  -9.722   0.345  1.00  0.00     0.011 C 
ATOM      8  C8  AAA X   1      10.265  -8.961  -0.961  1.00  0.00     0.009 C 
ATOM      9  C9  AAA X   1       8.766  -8.635  -1.046  1.00  0.00     0.011 C 
ATOM     10  C10 AAA X   1      11.101  -7.665  -0.958  1.00  0.00     0.092 C 
ENDROOT
BRANCH  10  11
ATOM     11  N24 AAA X   1      11.030  -6.941  -2.218  1.00  0.00    -0.354 N 
ATOM     12  H58 AAA X   1      10.425  -6.161  -2.332  1.00  0.00     0.162 HD
ATOM     13  C11 AAA X   1      11.822  -7.227  -3.262  1.00  0.00     0.251 C 
ATOM     14  O13 AAA X   1      12.640  -8.118  -3.263  1.00  0.00    -0.271 OA
BRANCH  13  15
ATOM     15  C12 AAA X   1      11.621  -6.389  -4.522  1.00  0.00     0.314 C 
ATOM     16  C17 AAA X   1      10.784  -7.161  -5.575  1.00  0.00     0.047 C 
ATOM     17  C16 AAA X   1       9.493  -6.346  -5.698  1.00  0.00     0.033 C 
ATOM     18  C15 AAA X   1       9.965  -4.934  -5.384  1.00  0.00     0.273 C 
ATOM     19  N14 AAA X   1      10.910  -5.131  -4.292  1.00  0.00     0.102 N 
BRANCH  19  20
ATOM     20  C18 AAA X   1      11.796  -4.011  -4.016  1.00  0.00     0.278 C 
BRANCH  20  21
ATOM     21  C19 AAA X   1      11.081  -2.740  -3.567  1.00  0.00     0.014 C 
ATOM     22  C23 AAA X   1      12.047  -1.591  -3.244  1.00  0.00     0.006 C 
ATOM     23  C22 AAA X   1      11.205  -0.585  -2.437  1.00  0.00     0.000 C 
ATOM     24  C21 AAA X   1      10.033  -1.404  -1.833  1.00  0.00     0.000 C 
ATOM     25  C20 AAA X   1      10.268  -2.860  -2.274  1.00  0.00     0.006 C 
ENDBRANCH  20  21
ENDBRANCH  19  20
ENDBRANCH  13  15
ENDBRANCH  10  11
TORSDOF 4
