@<TRIPOS>MOLECULE
drug.pdb
 58 62 0 0 0
SMALL
GASTEIGER

@<TRIPOS>ATOM
      1  C          8.6390   -8.5400    1.4600 C.3     1  AAA1       -0.0473
      2  C          8.3490   -7.7770    0.1590 C.3     1  AAA1       -0.0402
      3  C         10.1390   -8.8580    1.5490 C.3     1  AAA1       -0.0402
      4  C          9.1540   -6.4680    0.1450 C.3     1  AAA1       -0.0456
      5  C         10.9400   -7.5460    1.5280 C.3     1  AAA1       -0.0456
      6  C         10.6590   -6.7820    0.2220 C.3     1  AAA1       -0.0218
      7  C         10.5490   -9.7220    0.3450 C.3     1  AAA1       -0.0456
      8  C         10.2650   -8.9610   -0.9610 C.3     1  AAA1       -0.0218
      9  C          8.7660   -8.6350   -1.0460 C.3     1  AAA1       -0.0456
     10  C         11.1010   -7.6650   -0.9580 C.3     1  AAA1        0.0288
     11  C         11.8220   -7.2270   -3.2620 C.2     1  AAA1        0.2305
     12  C         11.6210   -6.3890   -4.5220 C.3     1  AAA1        0.0873
     13  O         12.6400   -8.1180   -3.2630 O.2     1  AAA1       -0.2741
     14  N         10.9100   -5.1310   -4.2920 N.3     1  AAA1       -0.2912
     15  C          9.9650   -4.9340   -5.3840 C.3     1  AAA1       -0.0003
     16  C          9.4930   -6.3460   -5.6980 C.3     1  AAA1       -0.0383
     17  C         10.7840   -7.1610   -5.5750 C.3     1  AAA1       -0.0277
     18  C         11.7960   -4.0110   -4.0160 C.3     1  AAA1        0.0024
     19  C         11.0810   -2.7400   -3.5670 C.3     1  AAA1       -0.0282
     20  C         10.2680   -2.8600   -2.2740 C.3     1  AAA1       -0.0490
     21  C         10.0330   -1.4040   -1.8330 C.3     1  AAA1       -0.0528
     22  C         11.2050   -0.5850   -2.4370 C.3     1  AAA1       -0.0528
     23  C         12.0470   -1.5910   -3.2440 C.3     1  AAA1       -0.0490
     24  N         11.0300   -6.9410   -2.2180 N.am    1  AAA1       -0.3106
     25  H          8.0600   -9.4610    1.4890 H       1  AAA1        0.0271
     26  H          8.3300   -7.9470    2.3190 H       1  AAA1        0.0271
     27  H          7.2860   -7.5500    0.0970 H       1  AAA1        0.0301
     28  H         10.3460   -9.3950    2.4720 H       1  AAA1        0.0301
     29  H          8.9150   -5.8950   -0.7490 H       1  AAA1        0.0271
     30  H          8.8720   -5.8420    0.9900 H       1  AAA1        0.0271
     31  H         12.0040   -7.7540    1.6170 H       1  AAA1        0.0271
     32  H         10.6670   -6.9270    2.3800 H       1  AAA1        0.0271
     33  H         11.2330   -5.8590    0.2090 H       1  AAA1        0.0319
     34  H          9.9980  -10.6600    0.3530 H       1  AAA1        0.0271
     35  H         11.6050   -9.9770    0.4060 H       1  AAA1        0.0271
     36  H         10.5660   -9.5650   -1.8110 H       1  AAA1        0.0319
     37  H          8.1910   -9.5600   -1.0630 H       1  AAA1        0.0271
     38  H          8.5440   -8.1130   -1.9730 H       1  AAA1        0.0271
     39  H         12.1420   -7.9360   -0.8250 H       1  AAA1        0.0504
     40  H         12.6230   -6.2170   -4.9070 H       1  AAA1        0.0558
     41  H          9.1570   -4.2760   -5.0850 H       1  AAA1        0.0427
     42  H         10.4490   -4.4910   -6.2610 H       1  AAA1        0.0427
     43  H          8.7640   -6.6640   -4.9580 H       1  AAA1        0.0278
     44  H          9.0330   -6.4290   -6.6770 H       1  AAA1        0.0278
     45  H         10.6180   -8.1930   -5.2930 H       1  AAA1        0.0285
     46  H         11.3140   -7.1690   -6.5200 H       1  AAA1        0.0285
     47  H         12.4810   -4.3160   -3.2300 H       1  AAA1        0.0429
     48  H         12.4080   -3.7840   -4.8960 H       1  AAA1        0.0429
     49  H         10.4170   -2.4030   -4.3620 H       1  AAA1        0.0313
     50  H         10.8610   -3.3880   -1.5280 H       1  AAA1        0.0268
     51  H          9.3430   -3.4120   -2.3990 H       1  AAA1        0.0268
     52  H          9.0840   -1.0440   -2.2220 H       1  AAA1        0.0265
     53  H          9.9810   -1.3130   -0.7530 H       1  AAA1        0.0265
     54  H         10.8250    0.1980   -3.0850 H       1  AAA1        0.0265
     55  H         11.7970   -0.0950   -1.6710 H       1  AAA1        0.0265
     56  H         12.8650   -1.9710   -2.6340 H       1  AAA1        0.0268
     57  H         12.4900   -1.1490   -4.1310 H       1  AAA1        0.0268
     58  H         10.4250   -6.1610   -2.3320 H       1  AAA1        0.1490
@<TRIPOS>BOND
     1    44    16    1
     2    46    17    1
     3    42    15    1
     4    16    17    1
     5    16    15    1
     6    16    43    1
     7    17    45    1
     8    17    12    1
     9    15    41    1
    10    15    14    1
    11    40    12    1
    12    48    18    1
    13    12    14    1
    14    12    11    1
    15    49    19    1
    16    14    18    1
    17    57    23    1
    18    18    19    1
    19    18    47    1
    20    19    23    1
    21    19    20    1
    22    13    11    2
    23    11    24   am
    24    23    56    1
    25    23    22    1
    26    54    22    1
    27    22    21    1
    28    22    55    1
    29    51    20    1
    30    58    24    1
    31    20    21    1
    32    20    50    1
    33    52    21    1
    34    24    10    1
    35    38     9    1
    36    21    53    1
    37    36     8    1
    38    37     9    1
    39     9     8    1
    40     9     2    1
    41     8    10    1
    42     8     7    1
    43    10    39    1
    44    10     6    1
    45    29     4    1
    46    27     2    1
    47     4     2    1
    48     4     6    1
    49     4    30    1
    50     2     1    1
    51    33     6    1
    52     6     5    1
    53     7    34    1
    54     7    35    1
    55     7     3    1
    56     1    25    1
    57     1     3    1
    58     1    26    1
    59     5     3    1
    60     5    31    1
    61     5    32    1
    62     3    28    1
