MODEL 1
REMARK VINA RESULT:      -8.7      0.000      0.000
REMARK  4 active torsions:
REMARK  status: ('A' for Active; 'I' for Inactive)
REMARK    1  A    between atoms: C10_10  and  N24_24 
REMARK       I    between atoms: C11_11  and  N24_24 
REMARK    2  A    between atoms: C11_11  and  C12_12 
REMARK    3  A    between atoms: N14_14  and  C18_18 
REMARK    4  A    between atoms: C18_18  and  C19_19 
ROOT
ATOM      1  C1  AAA X   1     -50.101   8.543   1.636  1.00  0.00     0.009 C 
ATOM      2  C2  AAA X   1     -48.801   8.661   2.445  1.00  0.00    -0.013 C 
ATOM      3  C3  AAA X   1     -49.777   8.537   0.135  1.00  0.00    -0.013 C 
ATOM      4  C4  AAA X   1     -47.889   7.467   2.121  1.00  0.00     0.011 C 
ATOM      5  C5  AAA X   1     -48.859   7.345  -0.183  1.00  0.00     0.011 C 
ATOM      6  C6  AAA X   1     -47.551   7.464   0.619  1.00  0.00     0.009 C 
ATOM      7  C7  AAA X   1     -49.058   9.844  -0.237  1.00  0.00     0.011 C 
ATOM      8  C8  AAA X   1     -47.752   9.965   0.568  1.00  0.00     0.009 C 
ATOM      9  C9  AAA X   1     -48.076   9.963   2.069  1.00  0.00     0.011 C 
ATOM     10  C10 AAA X   1     -46.849   8.769   0.207  1.00  0.00     0.092 C 
ENDROOT
BRANCH  10  11
ATOM     11  N24 AAA X   1     -45.520   8.864   0.793  1.00  0.00    -0.354 N 
ATOM     12  H58 AAA X   1     -45.307   8.434   1.663  1.00  0.00     0.162 HD
ATOM     13  C11 AAA X   1     -44.495   9.462   0.167  1.00  0.00     0.251 C 
ATOM     14  O13 AAA X   1     -44.584   9.993  -0.916  1.00  0.00    -0.271 OA
BRANCH  13  15
ATOM     15  C12 AAA X   1     -43.165   9.496   0.914  1.00  0.00     0.314 C 
ATOM     16  C17 AAA X   1     -41.972   9.381  -0.070  1.00  0.00     0.047 C 
ATOM     17  C16 AAA X   1     -41.252  10.727   0.056  1.00  0.00     0.033 C 
ATOM     18  C15 AAA X   1     -41.549  11.125   1.495  1.00  0.00     0.273 C 
ATOM     19  N14 AAA X   1     -42.939  10.727   1.673  1.00  0.00     0.102 N 
BRANCH  19  20
ATOM     20  C18 AAA X   1     -43.401  10.647   3.050  1.00  0.00     0.278 C 
BRANCH  20  21
ATOM     21  C19 AAA X   1     -44.354  11.766   3.458  1.00  0.00     0.014 C 
ATOM     22  C23 AAA X   1     -45.458  11.294   4.415  1.00  0.00     0.006 C 
ATOM     23  C22 AAA X   1     -46.519  12.410   4.374  1.00  0.00     0.000 C 
ATOM     24  C21 AAA X   1     -46.302  13.148   3.025  1.00  0.00     0.000 C 
ATOM     25  C20 AAA X   1     -45.156  12.401   2.318  1.00  0.00     0.006 C 
ENDBRANCH  20  21
ENDBRANCH  19  20
ENDBRANCH  13  15
ENDBRANCH  10  11
TORSDOF 4
ENDMDL
MODEL 2
REMARK VINA RESULT:      -8.6      4.012      8.073
REMARK  4 active torsions:
REMARK  status: ('A' for Active; 'I' for Inactive)
REMARK    1  A    between atoms: C10_10  and  N24_24 
REMARK       I    between atoms: C11_11  and  N24_24 
REMARK    2  A    between atoms: C11_11  and  C12_12 
REMARK    3  A    between atoms: N14_14  and  C18_18 
REMARK    4  A    between atoms: C18_18  and  C19_19 
ROOT
ATOM      1  C1  AAA X   1     -46.566   8.994  -0.274  1.00  0.00     0.009 C 
ATOM      2  C2  AAA X   1     -47.071   7.544  -0.284  1.00  0.00    -0.013 C 
ATOM      3  C3  AAA X   1     -47.488   9.857   0.600  1.00  0.00    -0.013 C 
ATOM      4  C4  AAA X   1     -47.078   6.996   1.152  1.00  0.00     0.011 C 
ATOM      5  C5  AAA X   1     -47.496   9.301   2.034  1.00  0.00     0.011 C 
ATOM      6  C6  AAA X   1     -48.010   7.850   2.030  1.00  0.00     0.009 C 
ATOM      7  C7  AAA X   1     -48.916   9.814   0.032  1.00  0.00     0.011 C 
ATOM      8  C8  AAA X   1     -49.429   8.365   0.024  1.00  0.00     0.009 C 
ATOM      9  C9  AAA X   1     -48.502   7.500  -0.844  1.00  0.00     0.011 C 
ATOM     10  C10 AAA X   1     -49.446   7.849   1.477  1.00  0.00     0.092 C 
ENDROOT
BRANCH  10  11
ATOM     11  N24 AAA X   1     -50.063   6.537   1.606  1.00  0.00    -0.354 N 
ATOM     12  H58 AAA X   1     -50.021   5.872   0.869  1.00  0.00     0.162 HD
ATOM     13  C11 AAA X   1     -50.647   6.122   2.740  1.00  0.00     0.251 C 
ATOM     14  O13 AAA X   1     -50.738   6.799   3.738  1.00  0.00    -0.271 OA
BRANCH  13  15
ATOM     15  C12 AAA X   1     -51.263   4.725   2.719  1.00  0.00     0.314 C 
ATOM     16  C17 AAA X   1     -52.800   4.799   2.524  1.00  0.00     0.047 C 
ATOM     17  C16 AAA X   1     -53.038   4.139   1.163  1.00  0.00     0.033 C 
ATOM     18  C15 AAA X   1     -51.894   3.139   1.079  1.00  0.00     0.273 C 
ATOM     19  N14 AAA X   1     -50.765   3.872   1.640  1.00  0.00     0.102 N 
BRANCH  19  20
ATOM     20  C18 AAA X   1     -49.619   3.065   2.026  1.00  0.00     0.278 C 
BRANCH  20  21
ATOM     21  C19 AAA X   1     -48.384   3.268   1.153  1.00  0.00     0.014 C 
ATOM     22  C23 AAA X   1     -48.724   3.772  -0.258  1.00  0.00     0.006 C 
ATOM     23  C22 AAA X   1     -47.450   3.515  -1.084  1.00  0.00     0.000 C 
ATOM     24  C21 AAA X   1     -46.682   2.390  -0.339  1.00  0.00     0.000 C 
ATOM     25  C20 AAA X   1     -47.565   2.006   0.863  1.00  0.00     0.006 C 
ENDBRANCH  20  21
ENDBRANCH  19  20
ENDBRANCH  13  15
ENDBRANCH  10  11
TORSDOF 4
ENDMDL
MODEL 3
REMARK VINA RESULT:      -7.9      1.586      3.788
REMARK  4 active torsions:
REMARK  status: ('A' for Active; 'I' for Inactive)
REMARK    1  A    between atoms: C10_10  and  N24_24 
REMARK       I    between atoms: C11_11  and  N24_24 
REMARK    2  A    between atoms: C11_11  and  C12_12 
REMARK    3  A    between atoms: N14_14  and  C18_18 
REMARK    4  A    between atoms: C18_18  and  C19_19 
ROOT
ATOM      1  C1  AAA X   1     -49.169   6.839   0.126  1.00  0.00     0.009 C 
ATOM      2  C2  AAA X   1     -47.683   7.222   0.198  1.00  0.00    -0.013 C 
ATOM      3  C3  AAA X   1     -50.029   8.013   0.616  1.00  0.00    -0.013 C 
ATOM      4  C4  AAA X   1     -47.429   8.450  -0.689  1.00  0.00     0.011 C 
ATOM      5  C5  AAA X   1     -49.767   9.241  -0.271  1.00  0.00     0.011 C 
ATOM      6  C6  AAA X   1     -48.281   9.634  -0.195  1.00  0.00     0.009 C 
ATOM      7  C7  AAA X   1     -49.656   8.348   2.069  1.00  0.00     0.011 C 
ATOM      8  C8  AAA X   1     -48.170   8.736   2.147  1.00  0.00     0.009 C 
ATOM      9  C9  AAA X   1     -47.309   7.565   1.649  1.00  0.00     0.011 C 
ATOM     10  C10 AAA X   1     -47.948   9.983   1.266  1.00  0.00     0.092 C 
ENDROOT
BRANCH  10  11
ATOM     11  N24 AAA X   1     -46.607  10.533   1.388  1.00  0.00    -0.354 N 
ATOM     12  H58 AAA X   1     -45.912  10.356   0.700  1.00  0.00     0.162 HD
ATOM     13  C11 AAA X   1     -46.254  11.365   2.379  1.00  0.00     0.251 C 
ATOM     14  O13 AAA X   1     -46.999  11.710   3.266  1.00  0.00    -0.271 OA
BRANCH  13  15
ATOM     15  C12 AAA X   1     -44.806  11.849   2.381  1.00  0.00     0.314 C 
ATOM     16  C17 AAA X   1     -44.689  13.247   3.042  1.00  0.00     0.047 C 
ATOM     17  C16 AAA X   1     -43.850  12.998   4.299  1.00  0.00     0.033 C 
ATOM     18  C15 AAA X   1     -42.978  11.823   3.884  1.00  0.00     0.273 C 
ATOM     19  N14 AAA X   1     -43.890  10.980   3.122  1.00  0.00     0.102 N 
BRANCH  19  20
ATOM     20  C18 AAA X   1     -43.264   9.963   2.292  1.00  0.00     0.278 C 
BRANCH  20  21
ATOM     21  C19 AAA X   1     -42.987  10.405   0.858  1.00  0.00     0.014 C 
ATOM     22  C23 AAA X   1     -43.518   9.413  -0.188  1.00  0.00     0.006 C 
ATOM     23  C22 AAA X   1     -42.799   9.799  -1.495  1.00  0.00     0.000 C 
ATOM     24  C21 AAA X   1     -41.511  10.549  -1.063  1.00  0.00     0.000 C 
ATOM     25  C20 AAA X   1     -41.509  10.526   0.477  1.00  0.00     0.006 C 
ENDBRANCH  20  21
ENDBRANCH  19  20
ENDBRANCH  13  15
ENDBRANCH  10  11
TORSDOF 4
ENDMDL
MODEL 4
REMARK VINA RESULT:      -7.7      1.501      2.487
REMARK  4 active torsions:
REMARK  status: ('A' for Active; 'I' for Inactive)
REMARK    1  A    between atoms: C10_10  and  N24_24 
REMARK       I    between atoms: C11_11  and  N24_24 
REMARK    2  A    between atoms: C11_11  and  C12_12 
REMARK    3  A    between atoms: N14_14  and  C18_18 
REMARK    4  A    between atoms: C18_18  and  C19_19 
ROOT
ATOM      1  C1  AAA X   1     -48.707   8.317   0.078  1.00  0.00     0.009 C 
ATOM      2  C2  AAA X   1     -47.591   9.225  -0.459  1.00  0.00    -0.013 C 
ATOM      3  C3  AAA X   1     -48.205   7.558   1.316  1.00  0.00    -0.013 C 
ATOM      4  C4  AAA X   1     -47.183  10.230   0.630  1.00  0.00     0.011 C 
ATOM      5  C5  AAA X   1     -47.792   8.568   2.399  1.00  0.00     0.011 C 
ATOM      6  C6  AAA X   1     -46.668   9.475   1.868  1.00  0.00     0.009 C 
ATOM      7  C7  AAA X   1     -46.987   6.702   0.930  1.00  0.00     0.011 C 
ATOM      8  C8  AAA X   1     -45.865   7.607   0.396  1.00  0.00     0.009 C 
ATOM      9  C9  AAA X   1     -46.370   8.373  -0.837  1.00  0.00     0.011 C 
ATOM     10  C10 AAA X   1     -45.461   8.590   1.514  1.00  0.00     0.092 C 
ENDROOT
BRANCH  10  11
ATOM     11  N24 AAA X   1     -44.297   9.393   1.171  1.00  0.00    -0.354 N 
ATOM     12  H58 AAA X   1     -44.388  10.251   0.679  1.00  0.00     0.162 HD
ATOM     13  C11 AAA X   1     -43.055   9.069   1.560  1.00  0.00     0.251 C 
ATOM     14  O13 AAA X   1     -42.786   8.079   2.201  1.00  0.00    -0.271 OA
BRANCH  13  15
ATOM     15  C12 AAA X   1     -41.933  10.001   1.111  1.00  0.00     0.314 C 
ATOM     16  C17 AAA X   1     -41.351   9.553  -0.255  1.00  0.00     0.047 C 
ATOM     17  C16 AAA X   1     -41.707  10.699  -1.208  1.00  0.00     0.033 C 
ATOM     18  C15 AAA X   1     -41.720  11.905  -0.280  1.00  0.00     0.273 C 
ATOM     19  N14 AAA X   1     -42.352  11.391   0.929  1.00  0.00     0.102 N 
BRANCH  19  20
ATOM     20  C18 AAA X   1     -42.183  12.205   2.123  1.00  0.00     0.278 C 
BRANCH  20  21
ATOM     21  C19 AAA X   1     -43.395  12.219   3.050  1.00  0.00     0.014 C 
ATOM     22  C23 AAA X   1     -44.654  12.788   2.382  1.00  0.00     0.006 C 
ATOM     23  C22 AAA X   1     -45.609  13.105   3.549  1.00  0.00     0.000 C 
ATOM     24  C21 AAA X   1     -44.705  13.273   4.800  1.00  0.00     0.000 C 
ATOM     25  C20 AAA X   1     -43.260  13.095   4.300  1.00  0.00     0.006 C 
ENDBRANCH  20  21
ENDBRANCH  19  20
ENDBRANCH  13  15
ENDBRANCH  10  11
TORSDOF 4
ENDMDL
MODEL 5
REMARK VINA RESULT:      -7.6      1.568      3.601
REMARK  4 active torsions:
REMARK  status: ('A' for Active; 'I' for Inactive)
REMARK    1  A    between atoms: C10_10  and  N24_24 
REMARK       I    between atoms: C11_11  and  N24_24 
REMARK    2  A    between atoms: C11_11  and  C12_12 
REMARK    3  A    between atoms: N14_14  and  C18_18 
REMARK    4  A    between atoms: C18_18  and  C19_19 
ROOT
ATOM      1  C1  AAA X   1     -50.309   6.442   1.243  1.00  0.00     0.009 C 
ATOM      2  C2  AAA X   1     -50.201   7.783   1.983  1.00  0.00    -0.013 C 
ATOM      3  C3  AAA X   1     -49.014   6.177   0.461  1.00  0.00    -0.013 C 
ATOM      4  C4  AAA X   1     -49.014   7.734   2.957  1.00  0.00     0.011 C 
ATOM      5  C5  AAA X   1     -47.828   6.135   1.439  1.00  0.00     0.011 C 
ATOM      6  C6  AAA X   1     -47.711   7.480   2.177  1.00  0.00     0.009 C 
ATOM      7  C7  AAA X   1     -48.793   7.309  -0.556  1.00  0.00     0.011 C 
ATOM      8  C8  AAA X   1     -48.679   8.654   0.180  1.00  0.00     0.009 C 
ATOM      9  C9  AAA X   1     -49.971   8.915   0.969  1.00  0.00     0.011 C 
ATOM     10  C10 AAA X   1     -47.468   8.584   1.133  1.00  0.00     0.092 C 
ENDROOT
BRANCH  10  11
ATOM     11  N24 AAA X   1     -47.171   9.859   1.768  1.00  0.00    -0.354 N 
ATOM     12  H58 AAA X   1     -47.630  10.139   2.604  1.00  0.00     0.162 HD
ATOM     13  C11 AAA X   1     -46.218  10.687   1.316  1.00  0.00     0.251 C 
ATOM     14  O13 AAA X   1     -45.543  10.467   0.336  1.00  0.00    -0.271 OA
BRANCH  13  15
ATOM     15  C12 AAA X   1     -46.032  11.996   2.079  1.00  0.00     0.314 C 
ATOM     16  C17 AAA X   1     -47.251  12.284   2.993  1.00  0.00     0.047 C 
ATOM     17  C16 AAA X   1     -46.679  12.214   4.413  1.00  0.00     0.033 C 
ATOM     18  C15 AAA X   1     -45.238  12.657   4.209  1.00  0.00     0.273 C 
ATOM     19  N14 AAA X   1     -44.862  12.010   2.958  1.00  0.00     0.102 N 
BRANCH  19  20
ATOM     20  C18 AAA X   1     -43.665  12.530   2.315  1.00  0.00     0.278 C 
BRANCH  20  21
ATOM     21  C19 AAA X   1     -42.614  11.472   1.993  1.00  0.00     0.014 C 
ATOM     22  C23 AAA X   1     -42.880  10.131   2.693  1.00  0.00     0.006 C 
ATOM     23  C22 AAA X   1     -41.548   9.365   2.594  1.00  0.00     0.000 C 
ATOM     24  C21 AAA X   1     -40.452  10.447   2.400  1.00  0.00     0.000 C 
ATOM     25  C20 AAA X   1     -41.187  11.800   2.442  1.00  0.00     0.006 C 
ENDBRANCH  20  21
ENDBRANCH  19  20
ENDBRANCH  13  15
ENDBRANCH  10  11
TORSDOF 4
ENDMDL
MODEL 6
REMARK VINA RESULT:      -7.5      2.889      6.957
REMARK  4 active torsions:
REMARK  status: ('A' for Active; 'I' for Inactive)
REMARK    1  A    between atoms: C10_10  and  N24_24 
REMARK       I    between atoms: C11_11  and  N24_24 
REMARK    2  A    between atoms: C11_11  and  C12_12 
REMARK    3  A    between atoms: N14_14  and  C18_18 
REMARK    4  A    between atoms: C18_18  and  C19_19 
ROOT
ATOM      1  C1  AAA X   1     -44.554  11.698   3.788  1.00  0.00     0.009 C 
ATOM      2  C2  AAA X   1     -44.680  10.531   2.797  1.00  0.00    -0.013 C 
ATOM      3  C3  AAA X   1     -45.953  12.181   4.198  1.00  0.00    -0.013 C 
ATOM      4  C4  AAA X   1     -45.448   9.378   3.462  1.00  0.00     0.011 C 
ATOM      5  C5  AAA X   1     -46.719  11.022   4.856  1.00  0.00     0.011 C 
ATOM      6  C6  AAA X   1     -46.855   9.853   3.864  1.00  0.00     0.009 C 
ATOM      7  C7  AAA X   1     -46.717  12.648   2.948  1.00  0.00     0.011 C 
ATOM      8  C8  AAA X   1     -46.851  11.482   1.954  1.00  0.00     0.009 C 
ATOM      9  C9  AAA X   1     -45.451  10.993   1.551  1.00  0.00     0.011 C 
ATOM     10  C10 AAA X   1     -47.642  10.350   2.639  1.00  0.00     0.092 C 
ENDROOT
BRANCH  10  11
ATOM     11  N24 AAA X   1     -47.964   9.256   1.736  1.00  0.00    -0.354 N 
ATOM     12  H58 AAA X   1     -47.304   8.924   1.071  1.00  0.00     0.162 HD
ATOM     13  C11 AAA X   1     -49.123   8.584   1.798  1.00  0.00     0.251 C 
ATOM     14  O13 AAA X   1     -50.008   8.838   2.582  1.00  0.00    -0.271 OA
BRANCH  13  15
ATOM     15  C12 AAA X   1     -49.322   7.469   0.774  1.00  0.00     0.314 C 
ATOM     16  C17 AAA X   1     -49.082   7.989  -0.667  1.00  0.00     0.047 C 
ATOM     17  C16 AAA X   1     -47.846   7.219  -1.142  1.00  0.00     0.033 C 
ATOM     18  C15 AAA X   1     -47.958   5.911  -0.372  1.00  0.00     0.273 C 
ATOM     19  N14 AAA X   1     -48.414   6.335   0.946  1.00  0.00     0.102 N 
BRANCH  19  20
ATOM     20  C18 AAA X   1     -48.958   5.285   1.792  1.00  0.00     0.278 C 
BRANCH  20  21
ATOM     21  C19 AAA X   1     -50.387   4.878   1.448  1.00  0.00     0.014 C 
ATOM     22  C23 AAA X   1     -51.334   4.934   2.657  1.00  0.00     0.006 C 
ATOM     23  C22 AAA X   1     -52.567   4.116   2.228  1.00  0.00     0.000 C 
ATOM     24  C21 AAA X   1     -52.074   3.167   1.103  1.00  0.00     0.000 C 
ATOM     25  C20 AAA X   1     -50.565   3.437   0.957  1.00  0.00     0.006 C 
ENDBRANCH  20  21
ENDBRANCH  19  20
ENDBRANCH  13  15
ENDBRANCH  10  11
TORSDOF 4
ENDMDL
MODEL 7
REMARK VINA RESULT:      -7.2      4.761      8.904
REMARK  4 active torsions:
REMARK  status: ('A' for Active; 'I' for Inactive)
REMARK    1  A    between atoms: C10_10  and  N24_24 
REMARK       I    between atoms: C11_11  and  N24_24 
REMARK    2  A    between atoms: C11_11  and  C12_12 
REMARK    3  A    between atoms: N14_14  and  C18_18 
REMARK    4  A    between atoms: C18_18  and  C19_19 
ROOT
ATOM      1  C1  AAA X   1     -47.033   9.798  -0.170  1.00  0.00     0.009 C 
ATOM      2  C2  AAA X   1     -48.288   9.867   0.712  1.00  0.00    -0.013 C 
ATOM      3  C3  AAA X   1     -46.739   8.335  -0.537  1.00  0.00    -0.013 C 
ATOM      4  C4  AAA X   1     -49.483   9.279  -0.054  1.00  0.00     0.011 C 
ATOM      5  C5  AAA X   1     -47.940   7.750  -1.297  1.00  0.00     0.011 C 
ATOM      6  C6  AAA X   1     -49.199   7.809  -0.413  1.00  0.00     0.009 C 
ATOM      7  C7  AAA X   1     -46.508   7.524   0.749  1.00  0.00     0.011 C 
ATOM      8  C8  AAA X   1     -47.763   7.586   1.635  1.00  0.00     0.009 C 
ATOM      9  C9  AAA X   1     -48.063   9.050   1.994  1.00  0.00     0.011 C 
ATOM     10  C10 AAA X   1     -48.940   6.970   0.851  1.00  0.00     0.092 C 
ENDROOT
BRANCH  10  11
ATOM     11  N24 AAA X   1     -50.147   6.834   1.652  1.00  0.00    -0.354 N 
ATOM     12  H58 AAA X   1     -50.802   7.577   1.729  1.00  0.00     0.162 HD
ATOM     13  C11 AAA X   1     -50.483   5.688   2.263  1.00  0.00     0.251 C 
ATOM     14  O13 AAA X   1     -49.812   4.683   2.227  1.00  0.00    -0.271 OA
BRANCH  13  15
ATOM     15  C12 AAA X   1     -51.772   5.703   3.081  1.00  0.00     0.314 C 
ATOM     16  C17 AAA X   1     -51.629   6.615   4.327  1.00  0.00     0.047 C 
ATOM     17  C16 AAA X   1     -52.626   7.750   4.077  1.00  0.00     0.033 C 
ATOM     18  C15 AAA X   1     -53.700   7.066   3.244  1.00  0.00     0.273 C 
ATOM     19  N14 AAA X   1     -52.935   6.207   2.349  1.00  0.00     0.102 N 
BRANCH  19  20
ATOM     20  C18 AAA X   1     -53.691   5.161   1.680  1.00  0.00     0.278 C 
BRANCH  20  21
ATOM     21  C19 AAA X   1     -54.719   4.463   2.566  1.00  0.00     0.014 C 
ATOM     22  C23 AAA X   1     -54.301   3.039   2.960  1.00  0.00     0.006 C 
ATOM     23  C22 AAA X   1     -55.595   2.377   3.470  1.00  0.00     0.000 C 
ATOM     24  C21 AAA X   1     -56.759   3.176   2.827  1.00  0.00     0.000 C 
ATOM     25  C20 AAA X   1     -56.095   4.239   1.933  1.00  0.00     0.006 C 
ENDBRANCH  20  21
ENDBRANCH  19  20
ENDBRANCH  13  15
ENDBRANCH  10  11
TORSDOF 4
ENDMDL
MODEL 8
REMARK VINA RESULT:      -7.0      4.859      8.607
REMARK  4 active torsions:
REMARK  status: ('A' for Active; 'I' for Inactive)
REMARK    1  A    between atoms: C10_10  and  N24_24 
REMARK       I    between atoms: C11_11  and  N24_24 
REMARK    2  A    between atoms: C11_11  and  C12_12 
REMARK    3  A    between atoms: N14_14  and  C18_18 
REMARK    4  A    between atoms: C18_18  and  C19_19 
ROOT
ATOM      1  C1  AAA X   1     -46.785   9.154   0.324  1.00  0.00     0.009 C 
ATOM      2  C2  AAA X   1     -48.078   9.495   1.080  1.00  0.00    -0.013 C 
ATOM      3  C3  AAA X   1     -46.830   7.691  -0.141  1.00  0.00    -0.013 C 
ATOM      4  C4  AAA X   1     -49.283   9.288   0.149  1.00  0.00     0.011 C 
ATOM      5  C5  AAA X   1     -48.041   7.487  -1.066  1.00  0.00     0.011 C 
ATOM      6  C6  AAA X   1     -49.339   7.820  -0.310  1.00  0.00     0.009 C 
ATOM      7  C7  AAA X   1     -46.967   6.771   1.084  1.00  0.00     0.011 C 
ATOM      8  C8  AAA X   1     -48.262   7.106   1.843  1.00  0.00     0.009 C 
ATOM      9  C9  AAA X   1     -48.222   8.572   2.300  1.00  0.00     0.011 C 
ATOM     10  C10 AAA X   1     -49.454   6.868   0.893  1.00  0.00     0.092 C 
ENDROOT
BRANCH  10  11
ATOM     11  N24 AAA X   1     -50.743   7.003   1.556  1.00  0.00    -0.354 N 
ATOM     12  H58 AAA X   1     -51.132   7.897   1.750  1.00  0.00     0.162 HD
ATOM     13  C11 AAA X   1     -51.510   5.949   1.868  1.00  0.00     0.251 C 
ATOM     14  O13 AAA X   1     -51.195   4.800   1.655  1.00  0.00    -0.271 OA
BRANCH  13  15
ATOM     15  C12 AAA X   1     -52.830   6.249   2.574  1.00  0.00     0.314 C 
ATOM     16  C17 AAA X   1     -53.966   6.492   1.546  1.00  0.00     0.047 C 
ATOM     17  C16 AAA X   1     -54.937   5.330   1.780  1.00  0.00     0.033 C 
ATOM     18  C15 AAA X   1     -54.740   5.030   3.258  1.00  0.00     0.273 C 
ATOM     19  N14 AAA X   1     -53.300   5.167   3.440  1.00  0.00     0.102 N 
BRANCH  19  20
ATOM     20  C18 AAA X   1     -52.848   5.294   4.816  1.00  0.00     0.278 C 
BRANCH  20  21
ATOM     21  C19 AAA X   1     -53.785   6.097   5.714  1.00  0.00     0.014 C 
ATOM     22  C23 AAA X   1     -53.312   7.541   5.934  1.00  0.00     0.006 C 
ATOM     23  C22 AAA X   1     -54.116   8.036   7.151  1.00  0.00     0.000 C 
ATOM     24  C21 AAA X   1     -54.546   6.759   7.921  1.00  0.00     0.000 C 
ATOM     25  C20 AAA X   1     -53.935   5.577   7.147  1.00  0.00     0.006 C 
ENDBRANCH  20  21
ENDBRANCH  19  20
ENDBRANCH  13  15
ENDBRANCH  10  11
TORSDOF 4
ENDMDL
MODEL 9
REMARK VINA RESULT:      -6.2      5.168      9.300
REMARK  4 active torsions:
REMARK  status: ('A' for Active; 'I' for Inactive)
REMARK    1  A    between atoms: C10_10  and  N24_24 
REMARK       I    between atoms: C11_11  and  N24_24 
REMARK    2  A    between atoms: C11_11  and  C12_12 
REMARK    3  A    between atoms: N14_14  and  C18_18 
REMARK    4  A    between atoms: C18_18  and  C19_19 
ROOT
ATOM      1  C1  AAA X   1     -48.182   8.442   0.408  1.00  0.00     0.009 C 
ATOM      2  C2  AAA X   1     -49.676   8.130   0.575  1.00  0.00    -0.013 C 
ATOM      3  C3  AAA X   1     -47.397   7.866   1.596  1.00  0.00    -0.013 C 
ATOM      4  C4  AAA X   1     -49.876   6.608   0.633  1.00  0.00     0.011 C 
ATOM      5  C5  AAA X   1     -47.606   6.343   1.653  1.00  0.00     0.011 C 
ATOM      6  C6  AAA X   1     -49.101   6.026   1.829  1.00  0.00     0.009 C 
ATOM      7  C7  AAA X   1     -47.911   8.497   2.900  1.00  0.00     0.011 C 
ATOM      8  C8  AAA X   1     -49.406   8.184   3.075  1.00  0.00     0.009 C 
ATOM      9  C9  AAA X   1     -50.190   8.753   1.883  1.00  0.00     0.011 C 
ATOM     10  C10 AAA X   1     -49.575   6.653   3.152  1.00  0.00     0.092 C 
ENDROOT
BRANCH  10  11
ATOM     11  N24 AAA X   1     -50.935   6.247   3.475  1.00  0.00    -0.354 N 
ATOM     12  H58 AAA X   1     -51.626   6.151   2.768  1.00  0.00     0.162 HD
ATOM     13  C11 AAA X   1     -51.312   5.907   4.716  1.00  0.00     0.251 C 
ATOM     14  O13 AAA X   1     -50.576   5.930   5.675  1.00  0.00    -0.271 OA
BRANCH  13  15
ATOM     15  C12 AAA X   1     -52.776   5.517   4.901  1.00  0.00     0.314 C 
ATOM     16  C17 AAA X   1     -52.992   4.797   6.258  1.00  0.00     0.047 C 
ATOM     17  C16 AAA X   1     -53.895   5.749   7.048  1.00  0.00     0.033 C 
ATOM     18  C15 AAA X   1     -54.691   6.435   5.947  1.00  0.00     0.273 C 
ATOM     19  N14 AAA X   1     -53.699   6.652   4.901  1.00  0.00     0.102 N 
BRANCH  19  20
ATOM     20  C18 AAA X   1     -54.231   6.962   3.584  1.00  0.00     0.278 C 
BRANCH  20  21
ATOM     21  C19 AAA X   1     -54.540   5.738   2.727  1.00  0.00     0.014 C 
ATOM     22  C23 AAA X   1     -54.129   5.915   1.258  1.00  0.00     0.006 C 
ATOM     23  C22 AAA X   1     -54.877   4.800   0.504  1.00  0.00     0.000 C 
ATOM     24  C21 AAA X   1     -56.088   4.424   1.398  1.00  0.00     0.000 C 
ATOM     25  C20 AAA X   1     -56.022   5.369   2.612  1.00  0.00     0.006 C 
ENDBRANCH  20  21
ENDBRANCH  19  20
ENDBRANCH  13  15
ENDBRANCH  10  11
TORSDOF 4
ENDMDL
